* JSIM deck file generated with Die2Sim
* ---------------------------------------------------------------------------
* === SUBCIRCUITS ===
*****************************************
* Begin .SUBCKT model                    *
* spice-sdb ver 4.28.2007                *
*                                        *
* RSFQ generic cell for MITLL sfq5ee     *
* Seedling project under IARPA-BAA-14-03 *
* Authored 1 March 2016, JA Delport, SU  *
* Last mod 16 Oct 2016, CJ Fourie, SU    *
*   (Optimized)                          *
******************************************
.SUBCKT PTLTX 1 2 
*==============  Begin SPICE netlist of main design ============
B01        3          7          jmitll     area=2
B02        4          6          jmitll     area=1.62
IB01       0          10         pwl(0      0 5p 230u)
IB02       0          11         pwl(0      0 5p 82u)
L01        1          3          2.5p      
L02        3          4          3.3p      
L03        4          5          0.35p     
LP01       0          7          0.05p     
LP02       0          6          0.12p     
LPR01      3          10         0.2p      
LPR02      4          11         1.3p      
LRB01      7          8          1p        
LRB02      6          9          1p        
RB01       8          3          4.85      
RB02       9          4          6.3       
RINS       5          2          1.36      
.model jmitll jj(rtype=1, vg=2.8mV, cap=0.07pF, r0=160ohm, rN=16ohm, icrit=0.1mA)
.ends PTLTX
******************************************
* Begin .SUBCKT model                    *
* spice-sdb ver 4.28.2007                *
*                                        *
* RSFQ generic cell for MITLL sfq5ee     *
* Seedling project under IARPA-BAA-14-03 *
* Authored 1 March 2016, JA Delport, SU  *
* Last mod 16 Oct 2016, CJ Fourie, SU    *
*   (Optimized)                          *
******************************************
.SUBCKT PTLRX 2 6 
*==============  Begin SPICE netlist of main design ============
B01        1          9          jmitll     area=1
B02        4          8          jmitll     area=1
B03        5          7          jmitll     area=1
IB01       0          10         pwl(0      0 5p 155u)
L01        2          1          0.2p      
L02        1          3          4.3p      
L03        3          4          4.6p      
L04        4          5          5.0p      
L05        5          6          2.3p      
LP01       0          9          0.34p     
LP02       0          8          0.06p     
LP03       0          7          0.03p     
LPR01      3          10         0.2p      
LRB01      9          11         0.5p      
LRB02      8          12         1p        
LRB03      7          13         1p        
RB01       11         1          9.7       
RB02       12         4          9.7       
RB03       13         5          9.7       
.model jmitll jj(rtype=1, vg=2.8mV, cap=0.07pF, r0=160ohm, rN=16ohm, icrit=0.1mA)
.ends PTLRX
*****************************************
.SUBCKT mitll.dcsfq 8 11 
*==============  Begin SPICE netlist of main design ============
B1         1          2          jjmitll100 area=2.25
B2         3          4          jjmitll100 area=2.25
B3         5          6          jjmitll100 area=2.5
IB1        0          2          pwl(0      0 5p 275uA)
IB2        0          5          pwl(0      0 5p 175uA)
L1         8          7          1p        
L2         7          0          3.9p      
L3         7          1          0.6p      
L4         2          3          1.1p      
L5         3          5          4.5p      
L6         5          11         2p        
Lp2        4          0          0.2p      
Lp3        6          0          0.2p      
LRB1       9          2          1p        
LRB2       10         4          1p        
LRB3       12         6          1p        
RB1        1          9          4.31      
RB2        3          10         4.31      
RB3        5          12         3.88      
.model jjmitll100 jj(rtype=1, vg=2.8mV, cap=0.07pF, r0=160, rN=16, icrit=0.1mA)
.ends mitll.dcsfq
*******************************
.SUBCKT mitll.jtl 200 500 
*==============  Begin SPICE netlist of main design ============
B1         1          6          jjmitll100 area=2.5
B2         4          8          jjmitll100 area=2.5
IB1        0          3          pwl(0      0 5p 350uA)
L1         2          1          2p        
L2         1          3          2p        
L3         3          4          2p        
L4         4          5          2p        
LB1        7          6          1p        
LB2        9          8          1p        
Lp1        6          0          0.2p      
Lp2        8          0          0.2p      
RB1        1          7          3.88      
RB2        4          9          3.88      
XPIN       PTLRX      200        2         
XPOUT      PTLTX      5          500       
.model jjmitll100 jj(rtype=1, vg=2.8mV, cap=0.07pF, r0=160, rN=16, icrit=0.1mA)
.ends mitll.jtl
.SUBCKT JTLTOUT 2 50 
*==============  Begin SPICE netlist of main design ============
B1         1          6          jjmitll100 area=2.5
B2         4          8          jjmitll100 area=2.5
IB1        0          3          pwl(0      0 5p 350uA)
L1         2          1          2p        
L2         1          3          2p        
L3         3          4          2p        
L4         4          5          2p        
LB1        7          6          1p        
LB2        9          8          1p        
Lp1        6          0          0.2p      
Lp2        8          0          0.2p      
RB1        1          7          3.88      
RB2        4          9          3.88      
XPOUT      PTLTX      5          50        
.model jjmitll100 jj(rtype=1, vg=2.8mV, cap=0.07pF, r0=160, rN=16, icrit=0.1mA)
.ends JTLTOUT

*****************************************
* Begin .SUBCKT model                    *
* spice-sdb ver 4.28.2007                *
*                                        *
* RSFQ generic cell for MITLL sfq5ee     *
* Seedling project under IARPA-BAA-14-03 *
* Authored 1 March 2016, JA Delport, SU  *
* Last mod 9 Oct 2016, CJ Fourie, SU     *
*   (optmized)                           *
******************************************
*$Parameters
*IT=1.11e-3
*$EndP
******************************************
*                 IN.A   IN.B   OUT     CLK     
*$Ports           in.a   in.b   out.out in.clk  
.SUBCKT gen.and   200    400    320     140       
*
*==============  Begin SPICE netlist of main design ============
XPINA      PTLRX      200        2         
XPINB      PTLRX      400        40        
XPINCLK    PTLRX      140        14        
XPOUT      PTLTX      32         320       
B01        6          12         jmitll     area=1.21
B02        44         49         jmitll     area=1.21
B03        7          24         jmitll     area=1.05
B04        50         45         jmitll     area=1.05
B05        25         26         jmitll     area=1.5
B06        26         51         jmitll     area=1.5
B07        27         28         jmitll     area=1.5
B08        18         23         jmitll     area=1.38
B09        30         31         jmitll     area=2.25
B10        3          11         jmitll     area=1.755
B11        41         48         jmitll     area=1.755
B12        1          9          jmitll     area=2.175
B13        39         47         jmitll     area=2.175
B14        15         22         jmitll     area=1.265
B15        13         21         jmitll     area=2.175
IB01       0          8          pwl(0      0 5p 120u)
IB02       0          46         pwl(0      0 5p 120u)
IB03       0          33         pwl(0      0 5p 70u)
IB05       0          34         pwl(0      0 5p 230u)
IB06       0          52         pwl(0      0 5p 230u)
IB07       0          20         pwl(0      0 5p 120u)
IB08       0          57         pwl(0      0 5p 220u)
L01        7          25         2.844p    
L02        51         45         2.904p    
L03        3          5          2.054p    
L04        41         43         2.057p    
L05        19         24         2.132p    
L06        50         19         2.171p    
L07        17         18         1.924p    
L08        27         29         0.039p    
L09        29         30         2.6p      
L10        30         32         2.47p     
L11        4          3          2.5375p   
L12        42         41         2.4p      
L13        2          1          2p        
L14        40         39         2p        
L15        5          6          9.521p    
L16        43         44         9.547p    
L17        14         13         2p        
L18        16         15         2.511p    
L19        15         17         0.239p    
L20        26         27         0.499p    
L21        6          7          0.148p    
L22        44         45         0.179p    
L23        18         19         0.01p     
L24        1          4          2.5375p   
L25        39         42         2.4p      
L26        13         16         2.511p    
LP01       0          12         0.255p    
LP02       0          49         0.229p    
LP07       0          28         0.299p    
LP08       0          23         0.211p    
LP09       0          31         0.174p    
LP10       0          11         0.221p    
LP11       0          48         0.203p    
LP12       0          9          0.203p    
LP13       0          47         0.195p    
LP14       0          22         0.187p    
LP15       0          21         0.19p     
LPR1       5          8          0.013p    
LPR2       43         46         0.01p     
LPR3       29         33         1.901p    
LPR4       17         20         0.85p     
LPR5       4          34         0.166p    
LPR6       42         52         0.172p    
LPR8       16         57         0.166p    
LRB01      36         12         1p        
LRB02      55         49         1p        
LRB03      37         24         1p        
LRB04      50         56         1p        
LRB05      38         26         1p        
LRB06      26         61         1p        
LRB07      62         28         1p        
LRB08      60         23         1p        
LRB09      63         31         1p        
LRB10      35         11         1p        
LRB11      54         48         1p        
LRB12      10         9          1p        
LRB13      53         47         1p        
LRB14      59         22         1p        
LRB15      58         21         1p        
RB01       36         6          7.8       
RB02       55         44         7.8       
RB03       37         7          9.6       
RB04       45         56         9.6       
RB05       38         25         6.5       
RB06       51         61         6.5       
RB07       62         27         6.5       
RB08       60         18         6.7       
RB09       63         30         4.3       
RB10       35         3          5.5       
RB11       54         41         5.5       
RB12       10         1          4.4       
RB13       53         39         4.4       
RB14       59         15         7.7       
RB15       58         13         4.4       
.model jmitll jj(rtype=1, vg=2.8mV, cap=0.07pF, r0=160, rN=16, icrit=0.1mA)
.ends gen.and
*******************************
******************************************
* Begin .SUBCKT model                    *
* spice-sdb ver 4.28.2007                *
*                                        *
* RSFQ generic cell for MITLL sfq5ee     *
* Seedling project under IARPA-BAA-14-03 *
* Authored 1 March 2016, JA Delport, SU  *
* Last mod 27 Nov 2016, CJ Fourie, SU    *
*   (Added IB06, L16, optimized)         *
******************************************
*$Parameters
*IT=910e-6
*$EndP
******************************************
*                 IN.A  IN.B  OUT       CLK     
*$Ports           in.a  in.b  out.out   in.clk  
.SUBCKT mitll.xor 200   600   270       100
*==============  Begin SPICE netlist of main design ============
XPINA      PTLRX      200        2         
XPINB      PTLRX      600        6         
XPINCLK    PTLRX      100        10        
XPOUT      PTLTX      27         270       
B01        3          31         jmitll     area=2.5
B02        1          32         jmitll     area=1.75
B03        3          12         jmitll     area=1.69
B04        7          29         jmitll     area=2.5
B05        5          30         jmitll     area=1.75
B06        7          14         jmitll     area=1.69
B07        21         16         jmitll     area=1.85
B08        22         23         jmitll     area=1.63
B09        9          28         jmitll     area=1.69
B10        9          33         jmitll     area=2.17
B11        25         26         jmitll     area=2.18
IB01       0          42         pwl(0      0 5p 225u)
IB02       0          43         pwl(0      0 5p 225u)
IB03       0          18         pwl(0      0 5p 60u)
IB04       0          19         pwl(0      0 5p 60u)
IB05       0          41         pwl(0      0 5p 180u)
IB06       0          45         pwl(0      0 5p 160u)
L01        2          1          2.53p     
L02        4          3          2.1p      
L03        12         17         1.6p      
L04        6          5          2.53p     
L05        8          7          2.1p      
L06        14         15         1.6p      
L07        17         16         1.9p      
L08        15         16         1.9p      
L09        21         22         1.422p    
L10        22         28         3.07p     
L11        10         9          2.436p    
L12        22         24         4.047p    
L13        25         27         2.213p    
L14        1          4          1p        
L15        5          8          1p        
L16        24         25         1.047p    
LP01       0          31         0.13p     
LP02       0          32         0.146p    
LP03       0          29         0.127p    
LP04       0          30         0.138p    
LP05       0          23         0.307p    
LP06       0          33         0.159p    
LP07       0          26         0.153p    
LPR01      4          42         0.211p    
LPR02      8          43         0.211p    
LPR03      17         18         0.351p    
LPR04      15         19         0.361p    
LPR05      9          41         0.208p    
LPR06      24         45         0.361p    
LRB01      31         36         1p        
LRB02      32         35         1p        
LRB03      11         12         1p        
LRB04      29         37         1p        
LRB05      30         38         1p        
LRB06      13         14         1p        
LRB07      20         21         1p        
LRB08      23         39         1p        
LRB09      44         9          1p        
LRB10      33         34         1p        
LRB11      26         40         1p        
RB01       36         3          3.88      
RB02       35         1          5.54      
RB03       11         3          5.4       
RB04       37         7          3.88      
RB05       38         5          5.54      
RB06       13         7          5.4       
RB07       16         20         5.25      
RB08       39         22         6         
RB09       28         44         5.4       
RB10       34         9          4.45      
RB11       40         25         4.45      
.model jmitll jj(rtype=1, vg=2.8mV, cap=0.07pF, r0=160, rN=16, icrit=0.1mA)
.ends mitll.xor
*******************************
*****************************************
* Begin .SUBCKT model                    *
* spice-sdb ver 4.28.2007                *
*                                        *
* RSFQ generic cell for MITLL sfq5ee     *
* Seedling project under IARPA-BAA-14-03 *
* Authored 1 March 2016, JA Delport, SU  *
* Last mod 4 Nov 2016, CJ Fourie, SU     *
*   (Added B10, optimized)               *
******************************************
*$Parameters
*IT=870e-6
*$EndP
******************************************
*                 IN.A   IN.B OUT   CLK  
*$Ports          in.a  in.b  OUT    in.clk  
.SUBCKT mitll.or 260    280  900    120       
*==============  Begin SPICE netlist of main design ============
XPINA      PTLRX      260        26        
XPINB      PTLRX      280        28        
XPINCLK    PTLRX      120        12        
XPOUT      PTLTX      9          900       
B01        18         19         jmitll     area=2.5
B02        18         22         jmitll     area=2
B03        20         21         jmitll     area=2.5
B04        20         23         jmitll     area=2
B05        24         25         jmitll     area=3
B06        11         13         jmitll     area=2.6
B07        15         2          jmitll     area=2
B08        1          3          jmitll     area=2
B09        6          7          jmitll     area=2.5
B10        35         24         jmitll     area=3.25
IB01       0          29         pwl(0      0 5p 440u)
IB02       0          10         pwl(0      0 5p 110u)
IB03       0          16         pwl(0      0 5p 200u)
IB04       0          5          pwl(0      0 5p 120u)
L01        26         18         3p        
L02        22         27         1.9p      
L03        28         20         3p        
L04        23         27         1.9p      
L05        27         29         0.6p      
L06        29         35         2.1p      
L07        24         10         0.4p      
L08        10         2          7.362p    
L09        2          1          2.27p     
L10        16         15         1.43p     
L11        11         16         3.13p     
L12        12         11         2.5p      
L13        1          5          3.2p      
L14        5          6          1.1p      
L15        6          9          3.291p    
LP01       19         0          0.2p      
LP03       21         0          0.2p      
LP05       25         0          0.2p      
LP06       0          13         0.122p    
LP08       0          3          0.117p    
LP09       0          7          0.151p    
LRB01      31         19         1p        
LRB02      33         22         1p        
LRB03      30         21         1p        
LRB04      34         23         1p        
LRB05      32         25         1p        
LRB06      14         13         1p        
LRB07      17         2          1p        
LRB08      4          3          1p        
LRB09      8          7          1p        
LRB10      36         24         1p        
RB01       18         31         3.88      
RB02       18         33         4.85      
RB03       20         30         3.88      
RB04       20         34         4.85      
RB05       24         32         3.23      
RB06       14         11         3.73      
RB07       17         15         4.85      
RB08       4          1          4.85      
RB09       8          6          3.88      
RB10       35         36         2.98      
.model jmitll jj(rtype=1, vg=2.8mV, cap=0.07pF, r0=160, rN=16, icrit=0.1mA)
.ends mitll.or
*******************************
******************************************
* Begin .SUBCKT model                    *
* spice-sdb ver 4.28.2007                *
*                                        *
* RSFQ generic cell for MITLL sfq5ee     *
* Seedling project under IARPA-BAA-14-03 *
* Authored 5 Nov 2015, CJ Fourie, SU     *
* Modified 1 March 2016, JA Delport, SU  *
* Modified 23 Aug 2016, CJ Fourie, SU    *
* Last mod 16 Oct 2016, CJ Fourie, SU    *
*   (added DMP junction B2, optmized)    *
******************************************
*$Parameters
*IT=633e-6
*$EndP
******************************************
*                  Set    Out
*$Ports         in.set   out.out   clk
.SUBCKT mitll.dff  190   230     250 
XPINSET    PTLRX      190        19        
XPINRESET  PTLRX      250        25        
XPOUT      PTLTX      23         230       
B1         1          2          jjmitll100 area=2.5
B2         10         16         jjmitll100 area=2
B3         16         24         jjmitll100 area=2
B4         3          4          jjmitll100 area=2
B5         14         3          jjmitll100 area=1.5
B6         7          8          jjmitll100 area=2.5
B7         5          6          jjmitll100 area=2.5
IB1        0          20         pwl(0      0 5p 260uA)
IB2        0          21         pwl(0      0 5p 96uA)
IB3        0          22         pwl(0      0 5p 163uA)
IB4        0          7          pwl(0      0 5p 154uA)
L1         19         1          2p        
L2a        1          20         1p        
L2b        20         10         1.9p      
L3         16         21         1.5p      
L4         21         3          6p        
L5a        3          22         3p        
L5b        22         5          1p        
L6         5          23         2p        
L7         7          14         2.8p      
L8         25         7          2.2p      
Lp1        2          0          0.2p      
Lp3        24         0          0.2p      
Lp4        4          0          0.2p      
Lp6        8          0          0.2p      
Lp7        6          0          0.2p      
LRB1       12         2          1p        
LRB2       9          16         1p        
LRB3       15         24         1p        
LRB4       17         4          1p        
LRB5       13         3          1p        
LRB6       11         8          1p        
LRB7       18         6          1p        
RB1        1          12         3.88      
RB2        10         9          3.23      
RB3        16         15         4.85      
RB4        3          17         4.85      
RB5        14         13         6.46      
RB6        7          11         3.88      
RB7        5          18         3.88      
.model jjmitll100 jj(rtype=1, vg=2.8mV, cap=0.07pF, r0=160, rN=16, icrit=0.1mA)
.ends mitll.dff
*******************************
******************************************
* Begin .SUBCKT model                    *
* spice-sdb ver 4.28.2007                *
*                                        *
* RSFQ generic cell for MITLL sfq5ee     *
* Seedling project under IARPA-BAA-14-03 *
* Authored 3 Nov 2015, CJ Fourie, SU     *
* Last mod 8 Nov 2016, CJ Fourie, SU     *
*   Added TimEx port descriptors         *
******************************************
*$Parameters
*IT=569e-6
*$EndP
******************************************
*                      in out1 out2
*$Ports                in.in  out.out1  out.out2
.SUBCKT mitll.splitter 700    100       110
XPINA      PTLRX      700        7         
XPOUT1     PTLTX      10         100       
XPOUT2     PTLTX      11         110       
B1         1          2          jjmitll100 area=3.25
B2         3          4          jjmitll100 area=2.5
B3         5          6          jjmitll100 area=2.5
*IB1        0          8          pwl(0      0 5p 569uA)
IB1        0          8          pwl(0      0 5p 669uA)
L1         7          1          1.4p      
L2         1          8          2p        
L3         8          9          0.4p      
L4         9          3          1.9p      
L5         3          10         2p        
L6         9          5          1.9p      
L7         5          11         2p        
Lp1        2          0          0.2p      
Lp2        4          0          0.2p      
Lp3        6          0          0.2p      
LRB1       12         2          1p        
LRB2       14         4          1p        
LRB3       13         6          1p        
RB1        1          12         2.98      
RB2        3          14         3.88      
RB3        5          13         3.88      
.model jjmitll100 jj(rtype=1, vg=2.8mV, cap=0.07pF, r0=160, rN=16, icrit=0.1mA)
.ends mitll.splitter
*******************************
*******************************
Xand2.31   gen.and    10064      10056      12 10218
Xand2.23   gen.and    10063      10053      13 10194
Xand2.32   gen.and    10104      10106      16 10216
Xand2.24   gen.and    10096      10097      17 10180
Xand2.41   gen.and    10046      10060      19 10214
Xand2.42   gen.and    10087      10052      23 10212
Xand2.34   gen.and    10110      10116      24 10238
Xand2.26   gen.and    10121      10039      25 10192
Xand2.18   gen.and    10061      10050      26 10190
Xand2.35   gen.and    10024      10042      28 10210
Xand2.27   gen.and    10112      10113      29 10213
Xand2.19   gen.and    10089      10049      30 10201
Xand2.44   gen.and    10055      10100      31 10208
Xand2.45   gen.and    10031      10070      34 10209
Xand2.38   gen.and    10047      10059      36 10188
Xand2.39   gen.and    10117      10099      37 10206
Xor2.46    mitll.or   10027      10073      91 10204
Xdff.50    mitll.dff  10058      68         10236
Xdff.51    mitll.dff  10068      71         10234
Xdff.60    mitll.dff  10034      73         10197
Xdff.52    mitll.dff  10041      74         10219
Xdff.61    mitll.dff  10018      76         10232
Xdff.53    mitll.dff  10020      77         10200
Xdff.70    mitll.dff  10102      78         10230
Xdff.62    mitll.dff  10076      79         10228
Xdff.54    mitll.dff  10084      80         10226
Xdff.47    mitll.dff  10040      62         10239
Xdff.71    mitll.dff  10101      81         10193
Xdff.63    mitll.dff  10079      82         10229
Xdff.55    mitll.dff  10080      83         10172
Xdff.48    mitll.dff  10051      65         10199
Xdff.72    mitll.dff  10115      84         10227
Xdff.56    mitll.dff  10083      85         10224
Xdff.57    mitll.dff  10036      66         10202
Xdff.49    mitll.dff  10048      67         10222
Xdff.73    mitll.dff  10044      87         10220
Xdff.65    mitll.dff  10009      86         10237
Xdff.58    mitll.dff  10015      69         10215
Xdff.59    mitll.dff  10054      70         10221
Xdff.68    mitll.dff  10038      72         10231
Xdff.69    mitll.dff  10123      75         10198
Xdff.64    mitll.dff  10082      92         10173
Xdff.66    mitll.dff  10086      93         10184
Xdff.67    mitll.dff  10035      94         10225
Xor2.20    mitll.or   10030      10062      8 10235
Xor2.40    mitll.or   10037      10066      15 10207
Xor2.33    mitll.or   10016      10074      20 10217
Xor2.25    mitll.or   10017      10067      21 10223
Xor2.43    mitll.or   10023      10069      27 10205
Xor2.36    mitll.or   10028      10077      32 10196
Xor2.28    mitll.or   10029      10109      33 10211
Xxor2a.37  mitll.xor  10032      10085      95 10182
Xsplit.100 mitll.splitter 10006      56         111
Xsplit.101 mitll.splitter 10007      59         114
Xxor2a.21  mitll.xor  10065      10098      9 10178
Xxor2a.30  mitll.xor  10103      10114      10 10203
Xxor2a.22  mitll.xor  10120      10111      11 10186
Xxor2a.15  mitll.xor  10118      10105      14 10195
Xxor2a.16  mitll.xor  10122      10107      18 10233
Xxor2a.17  mitll.xor  10119      10108      22 10174
Xxor2a.29  mitll.xor  10033      10071      35 10177
Xsplit.80  mitll.splitter 10011      43         101
Xsplit.81  mitll.splitter 10043      46         104
Xsplit.82  mitll.splitter 10013      48         106
Xsplit.90  mitll.splitter 10045      49         107
Xsplit.74  mitll.splitter 10014      88         121
Xsplit.83  mitll.splitter 10021      52         109
Xsplit.91  mitll.splitter 10075      51         110
Xsplit.75  mitll.splitter 10088      89         122
Xsplit.84  mitll.splitter 10025      55         112
Xsplit.92  mitll.splitter 10078      54         113
Xsplit.76  mitll.splitter 10022      90         123
Xsplit.77  mitll.splitter 10090      39         96
Xsplit.85  mitll.splitter 10010      57         115
Xsplit.93  mitll.splitter 10081      58         116
Xsplit.78  mitll.splitter 10026      40         97
Xsplit.86  mitll.splitter 10057      60         117
Xsplit.94  mitll.splitter 19999      61         118
Xsplit.79  mitll.splitter 10008      42         98
Xsplit.87  mitll.splitter 10012      41         99
Xsplit.95  mitll.splitter 10001      63         119
Xsplit.88  mitll.splitter 10019      44         100
Xsplit.96  mitll.splitter 10003      64         120
Xsplit.89  mitll.splitter 10072      45         102
Xsplit.97  mitll.splitter 10005      47         103
Xsplit.98  mitll.splitter 10002      50         105
Xsplit.99  mitll.splitter 10004      53         108
Xsplitclk.60 mitll.splitter 10162      238        239
Xsplitclk.61 mitll.splitter 10185      236        237
Xsplitclk.62 mitll.splitter 10179      234        235
Xsplitclk.63 mitll.splitter 10170      232        233
Xsplitclk.64 mitll.splitter 10158      230        231
Xsplitclk.65 mitll.splitter 10171      228        229
Xsplitclk.66 mitll.splitter 10161      226        227
Xsplitclk.67 mitll.splitter 10183      224        225
Xsplitclk.68 mitll.splitter 10181      222        223
Xsplitclk.69 mitll.splitter 10168      220        221
Xsplitclk.70 mitll.splitter 10187      218        219
Xsplitclk.71 mitll.splitter 10164      216        217
Xsplitclk.72 mitll.splitter 10160      214        215
Xsplitclk.73 mitll.splitter 10156      212        213
Xsplitclk.74 mitll.splitter 10176      210        211
Xsplitclk.75 mitll.splitter 10167      208        209
Xsplitclk.76 mitll.splitter 10165      206        207
Xsplitclk.77 mitll.splitter 10152      204        205
Xsplitclk.78 mitll.splitter 10189      202        203
Xsplitclk.79 mitll.splitter 10169      200        201
Xsplitclk.80 mitll.splitter 10191      198        199
Xsplitclk.81 mitll.splitter 10166      196        197
Xsplitclk.82 mitll.splitter 10175      194        195
Xsplitclk.83 mitll.splitter 10142      192        193
Xsplitclk.84 mitll.splitter 10148      190        191
Xsplitclk.85 mitll.splitter 10146      188        189
Xsplitclk.86 mitll.splitter 10150      186        187
Xsplitclk.87 mitll.splitter 10140      184        185
Xsplitclk.88 mitll.splitter 10153      182        183
Xsplitclk.89 mitll.splitter 10149      180        181
Xsplitclk.90 mitll.splitter 10163      178        179
Xsplitclk.91 mitll.splitter 10157      176        177