.SUBCKT JTL 4 5
*==============  Begin SPICE netlist of main design ============
B01 3 7 jtl area=2.16
B02 6 8 jtl area=2.16
IB01 0 1 pwl(0 0 5p 280u)
L01 4 3 2.031p
L02 3 2 2.425p
L03 2 6 2.425p
L04 6 5 2.031p
LP01 0 7 0.086p
LP02 0 8 0.086p
LPR01 2 1 0.278p
LRB01 7 9 1p
LRB02 8 10 1p
RB01 9 3 5.23
RB02 10 6 5.23
.model jtl jj(rtype=1, vg=2.8mV, cap=0.07pF, r0=160, rN=16, icrit=0.1mA)
.ends JTL
*******************************
VIN 0 1 pwl(0 0 50p 0 52p 827.13u 55p 0)
X1 JTL 1 2
X2 JTL 2 3
X3 JTL 3 4
X4 JTL 4 5
X5 JTL 5 6
X6 JTL 6 7
X7 JTL 7 8
X8 JTL 8 9
X9 JTL 9 10
X10 JTL 10 11
X11 JTL 11 12
X12 JTL 12 13
X13 JTL 13 14
X14 JTL 14 15
X15 JTL 15 16
X16 JTL 16 17
X17 JTL 17 18
X18 JTL 18 19
X19 JTL 19 20
X20 JTL 20 21
X21 JTL 21 22
X22 JTL 22 23
X23 JTL 23 24
X24 JTL 24 25
X25 JTL 25 26
X26 JTL 26 27
X27 JTL 27 28
X28 JTL 28 29
X29 JTL 29 30
X30 JTL 30 31
X31 JTL 31 32
X32 JTL 32 33
X33 JTL 33 34
X34 JTL 34 35
X35 JTL 35 36
X36 JTL 36 37
X37 JTL 37 38
X38 JTL 38 39
X39 JTL 39 40
X40 JTL 40 41
X41 JTL 41 42
X42 JTL 42 43
X43 JTL 43 44
X44 JTL 44 45
X45 JTL 45 46
X46 JTL 46 47
X47 JTL 47 48
X48 JTL 48 49
X49 JTL 49 50
X50 JTL 50 51
X51 JTL 51 52
X52 JTL 52 53
X53 JTL 53 54
X54 JTL 54 55
X55 JTL 55 56
X56 JTL 56 57
X57 JTL 57 58
X58 JTL 58 59
X59 JTL 59 60
X60 JTL 60 61
X61 JTL 61 62
X62 JTL 62 63
X63 JTL 63 64
X64 JTL 64 65
X65 JTL 65 66
X66 JTL 66 67
X67 JTL 67 68
X68 JTL 68 69
X69 JTL 69 70
X70 JTL 70 71
X71 JTL 71 72
X72 JTL 72 73
X73 JTL 73 74
X74 JTL 74 75
X75 JTL 75 76
X76 JTL 76 77
X77 JTL 77 78
X78 JTL 78 79
X79 JTL 79 80
X80 JTL 80 81
X81 JTL 81 82
X82 JTL 82 83
X83 JTL 83 84
X84 JTL 84 85
X85 JTL 85 86
X86 JTL 86 87
X87 JTL 87 88
X88 JTL 88 89
X89 JTL 89 90
X90 JTL 90 91
X91 JTL 91 92
X92 JTL 92 93
X93 JTL 93 94
X94 JTL 94 95
X95 JTL 95 96
X96 JTL 96 97
X97 JTL 97 98
X98 JTL 98 99
X99 JTL 99 100
X100 JTL 100 101
X101 JTL 101 102
X102 JTL 102 103
X103 JTL 103 104
X104 JTL 104 105
X105 JTL 105 106
X106 JTL 106 107
X107 JTL 107 108
X108 JTL 108 109
X109 JTL 109 110
X110 JTL 110 111
X111 JTL 111 112
X112 JTL 112 113
X113 JTL 113 114
X114 JTL 114 115
X115 JTL 115 116
X116 JTL 116 117
X117 JTL 117 118
X118 JTL 118 119
X119 JTL 119 120
X120 JTL 120 121
X121 JTL 121 122
X122 JTL 122 123
X123 JTL 123 124
X124 JTL 124 125
X125 JTL 125 126
X126 JTL 126 127
X127 JTL 127 128
X128 JTL 128 129
X129 JTL 129 130
X130 JTL 130 131
X131 JTL 131 132
X132 JTL 132 133
X133 JTL 133 134
X134 JTL 134 135
X135 JTL 135 136
X136 JTL 136 137
X137 JTL 137 138
X138 JTL 138 139
X139 JTL 139 140
X140 JTL 140 141
X141 JTL 141 142
X142 JTL 142 143
X143 JTL 143 144
X144 JTL 144 145
X145 JTL 145 146
X146 JTL 146 147
X147 JTL 147 148
X148 JTL 148 149
X149 JTL 149 150
X150 JTL 150 151
X151 JTL 151 152
X152 JTL 152 153
X153 JTL 153 154
X154 JTL 154 155
X155 JTL 155 156
X156 JTL 156 157
X157 JTL 157 158
X158 JTL 158 159
X159 JTL 159 160
X160 JTL 160 161
X161 JTL 161 162
X162 JTL 162 163
X163 JTL 163 164
X164 JTL 164 165
X165 JTL 165 166
X166 JTL 166 167
X167 JTL 167 168
X168 JTL 168 169
X169 JTL 169 170
X170 JTL 170 171
X171 JTL 171 172
X172 JTL 172 173
X173 JTL 173 174
X174 JTL 174 175
X175 JTL 175 176
X176 JTL 176 177
X177 JTL 177 178
X178 JTL 178 179
X179 JTL 179 180
X180 JTL 180 181
X181 JTL 181 182
X182 JTL 182 183
X183 JTL 183 184
X184 JTL 184 185
X185 JTL 185 186
X186 JTL 186 187
X187 JTL 187 188
X188 JTL 188 189
X189 JTL 189 190
X190 JTL 190 191
X191 JTL 191 192
X192 JTL 192 193
X193 JTL 193 194
X194 JTL 194 195
X195 JTL 195 196
X196 JTL 196 197
X197 JTL 197 198
X198 JTL 198 199
X199 JTL 199 200
X200 JTL 200 201
X201 JTL 201 202
X202 JTL 202 203
X203 JTL 203 204
X204 JTL 204 205
X205 JTL 205 206
X206 JTL 206 207
X207 JTL 207 208
X208 JTL 208 209
X209 JTL 209 210
X210 JTL 210 211
X211 JTL 211 212
X212 JTL 212 213
X213 JTL 213 214
X214 JTL 214 215
X215 JTL 215 216
X216 JTL 216 217
X217 JTL 217 218
X218 JTL 218 219
X219 JTL 219 220
X220 JTL 220 221
X221 JTL 221 222
X222 JTL 222 223
X223 JTL 223 224
X224 JTL 224 225
X225 JTL 225 226
X226 JTL 226 227
X227 JTL 227 228
X228 JTL 228 229
X229 JTL 229 230
X230 JTL 230 231
X231 JTL 231 232
X232 JTL 232 233
X233 JTL 233 234
X234 JTL 234 235
X235 JTL 235 236
X236 JTL 236 237
X237 JTL 237 238
X238 JTL 238 239
X239 JTL 239 240
X240 JTL 240 241
X241 JTL 241 242
X242 JTL 242 243
X243 JTL 243 244
X244 JTL 244 245
X245 JTL 245 246
X246 JTL 246 247
X247 JTL 247 248
X248 JTL 248 249
X249 JTL 249 250
X250 JTL 250 251
X251 JTL 251 252
X252 JTL 252 253
X253 JTL 253 254
X254 JTL 254 255
X255 JTL 255 256
X256 JTL 256 257
X257 JTL 257 258
X258 JTL 258 259
X259 JTL 259 260
X260 JTL 260 261
X261 JTL 261 262
X262 JTL 262 263
X263 JTL 263 264
X264 JTL 264 265
X265 JTL 265 266
X266 JTL 266 267
X267 JTL 267 268
X268 JTL 268 269
X269 JTL 269 270
X270 JTL 270 271
X271 JTL 271 272
X272 JTL 272 273
X273 JTL 273 274
X274 JTL 274 275
X275 JTL 275 276
X276 JTL 276 277
X277 JTL 277 278
X278 JTL 278 279
X279 JTL 279 280
X280 JTL 280 281
X281 JTL 281 282
X282 JTL 282 283
X283 JTL 283 284
X284 JTL 284 285
X285 JTL 285 286
X286 JTL 286 287
X287 JTL 287 288
X288 JTL 288 289
X289 JTL 289 290
X290 JTL 290 291
X291 JTL 291 292
X292 JTL 292 293
X293 JTL 293 294
X294 JTL 294 295
X295 JTL 295 296
X296 JTL 296 297
X297 JTL 297 298
X298 JTL 298 299
X299 JTL 299 300
X300 JTL 300 301
X301 JTL 301 302
X302 JTL 302 303
X303 JTL 303 304
X304 JTL 304 305
X305 JTL 305 306
X306 JTL 306 307
X307 JTL 307 308
X308 JTL 308 309
X309 JTL 309 310
X310 JTL 310 311
X311 JTL 311 312
X312 JTL 312 313
X313 JTL 313 314
X314 JTL 314 315
X315 JTL 315 316
X316 JTL 316 317
X317 JTL 317 318
X318 JTL 318 319
X319 JTL 319 320
X320 JTL 320 321
X321 JTL 321 322
X322 JTL 322 323
X323 JTL 323 324
X324 JTL 324 325
X325 JTL 325 326
X326 JTL 326 327
X327 JTL 327 328
X328 JTL 328 329
X329 JTL 329 330
X330 JTL 330 331
X331 JTL 331 332
X332 JTL 332 333
X333 JTL 333 334
X334 JTL 334 335
X335 JTL 335 336
X336 JTL 336 337
X337 JTL 337 338
X338 JTL 338 339
X339 JTL 339 340
X340 JTL 340 341
X341 JTL 341 342
X342 JTL 342 343
X343 JTL 343 344
X344 JTL 344 345
X345 JTL 345 346
X346 JTL 346 347
X347 JTL 347 348
X348 JTL 348 349
X349 JTL 349 350
X350 JTL 350 351
X351 JTL 351 352
X352 JTL 352 353
X353 JTL 353 354
X354 JTL 354 355
X355 JTL 355 356
X356 JTL 356 357
X357 JTL 357 358
X358 JTL 358 359
X359 JTL 359 360
X360 JTL 360 361
X361 JTL 361 362
X362 JTL 362 363
X363 JTL 363 364
X364 JTL 364 365
X365 JTL 365 366
X366 JTL 366 367
X367 JTL 367 368
X368 JTL 368 369
X369 JTL 369 370
X370 JTL 370 371
X371 JTL 371 372
X372 JTL 372 373
X373 JTL 373 374
X374 JTL 374 375
X375 JTL 375 376
X376 JTL 376 377
X377 JTL 377 378
X378 JTL 378 379
X379 JTL 379 380
X380 JTL 380 381
X381 JTL 381 382
X382 JTL 382 383
X383 JTL 383 384
X384 JTL 384 385
X385 JTL 385 386
X386 JTL 386 387
X387 JTL 387 388
X388 JTL 388 389
X389 JTL 389 390
X390 JTL 390 391
X391 JTL 391 392
X392 JTL 392 393
X393 JTL 393 394
X394 JTL 394 395
X395 JTL 395 396
X396 JTL 396 397
X397 JTL 397 398
X398 JTL 398 399
X399 JTL 399 400
X400 JTL 400 401
X401 JTL 401 402
X402 JTL 402 403
X403 JTL 403 404
X404 JTL 404 405
X405 JTL 405 406
X406 JTL 406 407
X407 JTL 407 408
X408 JTL 408 409
X409 JTL 409 410
X410 JTL 410 411
X411 JTL 411 412
X412 JTL 412 413
X413 JTL 413 414
X414 JTL 414 415
X415 JTL 415 416
X416 JTL 416 417
X417 JTL 417 418
X418 JTL 418 419
X419 JTL 419 420
X420 JTL 420 421
X421 JTL 421 422
X422 JTL 422 423
X423 JTL 423 424
X424 JTL 424 425
X425 JTL 425 426
X426 JTL 426 427
X427 JTL 427 428
X428 JTL 428 429
X429 JTL 429 430
X430 JTL 430 431
X431 JTL 431 432
X432 JTL 432 433
X433 JTL 433 434
X434 JTL 434 435
X435 JTL 435 436
X436 JTL 436 437
X437 JTL 437 438
X438 JTL 438 439
X439 JTL 439 440
X440 JTL 440 441
X441 JTL 441 442
X442 JTL 442 443
X443 JTL 443 444
X444 JTL 444 445
X445 JTL 445 446
X446 JTL 446 447
X447 JTL 447 448
X448 JTL 448 449
X449 JTL 449 450
X450 JTL 450 451
X451 JTL 451 452
X452 JTL 452 453
X453 JTL 453 454
X454 JTL 454 455
X455 JTL 455 456
X456 JTL 456 457
X457 JTL 457 458
X458 JTL 458 459
X459 JTL 459 460
X460 JTL 460 461
X461 JTL 461 462
X462 JTL 462 463
X463 JTL 463 464
X464 JTL 464 465
X465 JTL 465 466
X466 JTL 466 467
X467 JTL 467 468
X468 JTL 468 469
X469 JTL 469 470
X470 JTL 470 471
X471 JTL 471 472
X472 JTL 472 473
X473 JTL 473 474
X474 JTL 474 475
X475 JTL 475 476
X476 JTL 476 477
X477 JTL 477 478
X478 JTL 478 479
X479 JTL 479 480
X480 JTL 480 481
X481 JTL 481 482
X482 JTL 482 483
X483 JTL 483 484
X484 JTL 484 485
X485 JTL 485 486
X486 JTL 486 487
X487 JTL 487 488
X488 JTL 488 489
X489 JTL 489 490
X490 JTL 490 491
X491 JTL 491 492
X492 JTL 492 493
X493 JTL 493 494
X494 JTL 494 495
X495 JTL 495 496
X496 JTL 496 497
X497 JTL 497 498
X498 JTL 498 499
X499 JTL 499 500
X500 JTL 500 501
X501 JTL 501 502
X502 JTL 502 503
X503 JTL 503 504
X504 JTL 504 505
X505 JTL 505 506
X506 JTL 506 507
X507 JTL 507 508
X508 JTL 508 509
X509 JTL 509 510
X510 JTL 510 511
X511 JTL 511 512
X512 JTL 512 513
X513 JTL 513 514
X514 JTL 514 515
X515 JTL 515 516
X516 JTL 516 517
X517 JTL 517 518
X518 JTL 518 519
X519 JTL 519 520
X520 JTL 520 521
X521 JTL 521 522
X522 JTL 522 523
X523 JTL 523 524
X524 JTL 524 525
X525 JTL 525 526
X526 JTL 526 527
X527 JTL 527 528
X528 JTL 528 529
X529 JTL 529 530
X530 JTL 530 531
X531 JTL 531 532
X532 JTL 532 533
X533 JTL 533 534
X534 JTL 534 535
X535 JTL 535 536
X536 JTL 536 537
X537 JTL 537 538
X538 JTL 538 539
X539 JTL 539 540
X540 JTL 540 541
X541 JTL 541 542
X542 JTL 542 543
X543 JTL 543 544
X544 JTL 544 545
X545 JTL 545 546
X546 JTL 546 547
X547 JTL 547 548
X548 JTL 548 549
X549 JTL 549 550
X550 JTL 550 551
X551 JTL 551 552
X552 JTL 552 553
X553 JTL 553 554
X554 JTL 554 555
X555 JTL 555 556
X556 JTL 556 557
X557 JTL 557 558
X558 JTL 558 559
X559 JTL 559 560
X560 JTL 560 561
X561 JTL 561 562
X562 JTL 562 563
X563 JTL 563 564
X564 JTL 564 565
X565 JTL 565 566
X566 JTL 566 567
X567 JTL 567 568
X568 JTL 568 569
X569 JTL 569 570
X570 JTL 570 571
X571 JTL 571 572
X572 JTL 572 573
X573 JTL 573 574
X574 JTL 574 575
X575 JTL 575 576
X576 JTL 576 577
X577 JTL 577 578
X578 JTL 578 579
X579 JTL 579 580
X580 JTL 580 581
X581 JTL 581 582
X582 JTL 582 583
X583 JTL 583 584
X584 JTL 584 585
X585 JTL 585 586
X586 JTL 586 587
X587 JTL 587 588
X588 JTL 588 589
X589 JTL 589 590
X590 JTL 590 591
X591 JTL 591 592
X592 JTL 592 593
X593 JTL 593 594
X594 JTL 594 595
X595 JTL 595 596
X596 JTL 596 597
X597 JTL 597 598
X598 JTL 598 599
X599 JTL 599 600
X600 JTL 600 601
X601 JTL 601 602
X602 JTL 602 603
X603 JTL 603 604
X604 JTL 604 605
X605 JTL 605 606
X606 JTL 606 607
X607 JTL 607 608
X608 JTL 608 609
X609 JTL 609 610
X610 JTL 610 611
X611 JTL 611 612
X612 JTL 612 613
X613 JTL 613 614
X614 JTL 614 615
X615 JTL 615 616
X616 JTL 616 617
X617 JTL 617 618
X618 JTL 618 619
X619 JTL 619 620
X620 JTL 620 621
X621 JTL 621 622
X622 JTL 622 623
X623 JTL 623 624
X624 JTL 624 625
X625 JTL 625 626
X626 JTL 626 627
X627 JTL 627 628
X628 JTL 628 629
X629 JTL 629 630
X630 JTL 630 631
X631 JTL 631 632
X632 JTL 632 633
X633 JTL 633 634
X634 JTL 634 635
X635 JTL 635 636
X636 JTL 636 637
X637 JTL 637 638
X638 JTL 638 639
X639 JTL 639 640
X640 JTL 640 641
X641 JTL 641 642
X642 JTL 642 643
X643 JTL 643 644
X644 JTL 644 645
X645 JTL 645 646
X646 JTL 646 647
X647 JTL 647 648
X648 JTL 648 649
X649 JTL 649 650
X650 JTL 650 651
X651 JTL 651 652
X652 JTL 652 653
X653 JTL 653 654
X654 JTL 654 655
X655 JTL 655 656
X656 JTL 656 657
X657 JTL 657 658
X658 JTL 658 659
X659 JTL 659 660
X660 JTL 660 661
X661 JTL 661 662
X662 JTL 662 663
X663 JTL 663 664
X664 JTL 664 665
X665 JTL 665 666
X666 JTL 666 667
X667 JTL 667 668
X668 JTL 668 669
X669 JTL 669 670
X670 JTL 670 671
X671 JTL 671 672
X672 JTL 672 673
X673 JTL 673 674
X674 JTL 674 675
X675 JTL 675 676
X676 JTL 676 677
X677 JTL 677 678
X678 JTL 678 679
X679 JTL 679 680
X680 JTL 680 681
X681 JTL 681 682
X682 JTL 682 683
X683 JTL 683 684
X684 JTL 684 685
X685 JTL 685 686
X686 JTL 686 687
X687 JTL 687 688
X688 JTL 688 689
X689 JTL 689 690
X690 JTL 690 691
X691 JTL 691 692
X692 JTL 692 693
X693 JTL 693 694
X694 JTL 694 695
X695 JTL 695 696
X696 JTL 696 697
X697 JTL 697 698
X698 JTL 698 699
X699 JTL 699 700
X700 JTL 700 701
X701 JTL 701 702
X702 JTL 702 703
X703 JTL 703 704
X704 JTL 704 705
X705 JTL 705 706
X706 JTL 706 707
X707 JTL 707 708
X708 JTL 708 709
X709 JTL 709 710
X710 JTL 710 711
X711 JTL 711 712
X712 JTL 712 713
X713 JTL 713 714
X714 JTL 714 715
X715 JTL 715 716
X716 JTL 716 717
X717 JTL 717 718
X718 JTL 718 719
X719 JTL 719 720
X720 JTL 720 721
X721 JTL 721 722
X722 JTL 722 723
X723 JTL 723 724
X724 JTL 724 725
X725 JTL 725 726
X726 JTL 726 727
X727 JTL 727 728
X728 JTL 728 729
X729 JTL 729 730
X730 JTL 730 731
X731 JTL 731 732
X732 JTL 732 733
X733 JTL 733 734
X734 JTL 734 735
X735 JTL 735 736
X736 JTL 736 737
X737 JTL 737 738
X738 JTL 738 739
X739 JTL 739 740
X740 JTL 740 741
X741 JTL 741 742
X742 JTL 742 743
X743 JTL 743 744
X744 JTL 744 745
X745 JTL 745 746
X746 JTL 746 747
X747 JTL 747 748
X748 JTL 748 749
X749 JTL 749 750
X750 JTL 750 751
X751 JTL 751 752
X752 JTL 752 753
X753 JTL 753 754
X754 JTL 754 755
X755 JTL 755 756
X756 JTL 756 757
X757 JTL 757 758
X758 JTL 758 759
X759 JTL 759 760
X760 JTL 760 761
X761 JTL 761 762
X762 JTL 762 763
X763 JTL 763 764
X764 JTL 764 765
X765 JTL 765 766
X766 JTL 766 767
X767 JTL 767 768
X768 JTL 768 769
X769 JTL 769 770
X770 JTL 770 771
X771 JTL 771 772
X772 JTL 772 773
X773 JTL 773 774
X774 JTL 774 775
X775 JTL 775 776
X776 JTL 776 777
X777 JTL 777 778
X778 JTL 778 779
X779 JTL 779 780
X780 JTL 780 781
X781 JTL 781 782
X782 JTL 782 783
X783 JTL 783 784
X784 JTL 784 785
X785 JTL 785 786
X786 JTL 786 787
X787 JTL 787 788
X788 JTL 788 789
X789 JTL 789 790
X790 JTL 790 791
X791 JTL 791 792
X792 JTL 792 793
X793 JTL 793 794
X794 JTL 794 795
X795 JTL 795 796
X796 JTL 796 797
X797 JTL 797 798
X798 JTL 798 799
X799 JTL 799 800
X800 JTL 800 801
X801 JTL 801 802
X802 JTL 802 803
X803 JTL 803 804
X804 JTL 804 805
X805 JTL 805 806
X806 JTL 806 807
X807 JTL 807 808
X808 JTL 808 809
X809 JTL 809 810
X810 JTL 810 811
X811 JTL 811 812
X812 JTL 812 813
X813 JTL 813 814
X814 JTL 814 815
X815 JTL 815 816
X816 JTL 816 817
X817 JTL 817 818
X818 JTL 818 819
X819 JTL 819 820
X820 JTL 820 821
X821 JTL 821 822
X822 JTL 822 823
X823 JTL 823 824
X824 JTL 824 825
X825 JTL 825 826
X826 JTL 826 827
X827 JTL 827 828
X828 JTL 828 829
X829 JTL 829 830
X830 JTL 830 831
X831 JTL 831 832
X832 JTL 832 833
X833 JTL 833 834
X834 JTL 834 835
X835 JTL 835 836
X836 JTL 836 837
X837 JTL 837 838
X838 JTL 838 839
X839 JTL 839 840
X840 JTL 840 841
X841 JTL 841 842
X842 JTL 842 843
X843 JTL 843 844
X844 JTL 844 845
X845 JTL 845 846
X846 JTL 846 847
X847 JTL 847 848
X848 JTL 848 849
X849 JTL 849 850
X850 JTL 850 851
X851 JTL 851 852
X852 JTL 852 853
X853 JTL 853 854
X854 JTL 854 855
X855 JTL 855 856
X856 JTL 856 857
X857 JTL 857 858
X858 JTL 858 859
X859 JTL 859 860
X860 JTL 860 861
X861 JTL 861 862
X862 JTL 862 863
X863 JTL 863 864
X864 JTL 864 865
X865 JTL 865 866
X866 JTL 866 867
X867 JTL 867 868
X868 JTL 868 869
X869 JTL 869 870
X870 JTL 870 871
X871 JTL 871 872
X872 JTL 872 873
X873 JTL 873 874
X874 JTL 874 875
X875 JTL 875 876
X876 JTL 876 877
X877 JTL 877 878
X878 JTL 878 879
X879 JTL 879 880
X880 JTL 880 881
X881 JTL 881 882
X882 JTL 882 883
X883 JTL 883 884
X884 JTL 884 885
X885 JTL 885 886
X886 JTL 886 887
X887 JTL 887 888
X888 JTL 888 889
X889 JTL 889 890
X890 JTL 890 891
X891 JTL 891 892
X892 JTL 892 893
X893 JTL 893 894
X894 JTL 894 895
X895 JTL 895 896
X896 JTL 896 897
X897 JTL 897 898
X898 JTL 898 899
X899 JTL 899 900
X900 JTL 900 901
X901 JTL 901 902
X902 JTL 902 903
X903 JTL 903 904
X904 JTL 904 905
X905 JTL 905 906
X906 JTL 906 907
X907 JTL 907 908
X908 JTL 908 909
X909 JTL 909 910
X910 JTL 910 911
X911 JTL 911 912
X912 JTL 912 913
X913 JTL 913 914
X914 JTL 914 915
X915 JTL 915 916
X916 JTL 916 917
X917 JTL 917 918
X918 JTL 918 919
X919 JTL 919 920
X920 JTL 920 921
X921 JTL 921 922
X922 JTL 922 923
X923 JTL 923 924
X924 JTL 924 925
X925 JTL 925 926
X926 JTL 926 927
X927 JTL 927 928
X928 JTL 928 929
X929 JTL 929 930
X930 JTL 930 931
X931 JTL 931 932
X932 JTL 932 933
X933 JTL 933 934
X934 JTL 934 935
X935 JTL 935 936
X936 JTL 936 937
X937 JTL 937 938
X938 JTL 938 939
X939 JTL 939 940
X940 JTL 940 941
X941 JTL 941 942
X942 JTL 942 943
X943 JTL 943 944
X944 JTL 944 945
X945 JTL 945 946
X946 JTL 946 947
X947 JTL 947 948
X948 JTL 948 949
X949 JTL 949 950
X950 JTL 950 951
X951 JTL 951 952
X952 JTL 952 953
X953 JTL 953 954
X954 JTL 954 955
X955 JTL 955 956
X956 JTL 956 957
X957 JTL 957 958
X958 JTL 958 959
X959 JTL 959 960
X960 JTL 960 961
X961 JTL 961 962
X962 JTL 962 963
X963 JTL 963 964
X964 JTL 964 965
X965 JTL 965 966
X966 JTL 966 967
X967 JTL 967 968
X968 JTL 968 969
X969 JTL 969 970
X970 JTL 970 971
X971 JTL 971 972
X972 JTL 972 973
X973 JTL 973 974
X974 JTL 974 975
X975 JTL 975 976
X976 JTL 976 977
X977 JTL 977 978
X978 JTL 978 979
X979 JTL 979 980
X980 JTL 980 981
X981 JTL 981 982
X982 JTL 982 983
X983 JTL 983 984
X984 JTL 984 985
X985 JTL 985 986
X986 JTL 986 987
X987 JTL 987 988
X988 JTL 988 989
X989 JTL 989 990
X990 JTL 990 991
X991 JTL 991 992
X992 JTL 992 993
X993 JTL 993 994
X994 JTL 994 995
X995 JTL 995 996
X996 JTL 996 997
X997 JTL 997 998
X998 JTL 998 999
X999 JTL 999 1000
X1000 JTL 1000 1001
X1001 JTL 1001 1002
X1002 JTL 1002 1003
X1003 JTL 1003 1004
X1004 JTL 1004 1005
X1005 JTL 1005 1006
X1006 JTL 1006 1007
X1007 JTL 1007 1008
X1008 JTL 1008 1009
X1009 JTL 1009 1010
X1010 JTL 1010 1011
X1011 JTL 1011 1012
X1012 JTL 1012 1013
X1013 JTL 1013 1014
X1014 JTL 1014 1015
X1015 JTL 1015 1016
X1016 JTL 1016 1017
X1017 JTL 1017 1018
X1018 JTL 1018 1019
X1019 JTL 1019 1020
X1020 JTL 1020 1021
X1021 JTL 1021 1022
X1022 JTL 1022 1023
X1023 JTL 1023 1024
X1024 JTL 1024 1025
X1025 JTL 1025 1026
X1026 JTL 1026 1027
X1027 JTL 1027 1028
X1028 JTL 1028 1029
X1029 JTL 1029 1030
X1030 JTL 1030 1031
X1031 JTL 1031 1032
X1032 JTL 1032 1033
X1033 JTL 1033 1034
X1034 JTL 1034 1035
X1035 JTL 1035 1036
X1036 JTL 1036 1037
X1037 JTL 1037 1038
X1038 JTL 1038 1039
X1039 JTL 1039 1040
X1040 JTL 1040 1041
X1041 JTL 1041 1042
X1042 JTL 1042 1043
X1043 JTL 1043 1044
X1044 JTL 1044 1045
X1045 JTL 1045 1046
X1046 JTL 1046 1047
X1047 JTL 1047 1048
X1048 JTL 1048 1049
X1049 JTL 1049 1050
X1050 JTL 1050 1051
X1051 JTL 1051 1052
X1052 JTL 1052 1053
X1053 JTL 1053 1054
X1054 JTL 1054 1055
X1055 JTL 1055 1056
X1056 JTL 1056 1057
X1057 JTL 1057 1058
X1058 JTL 1058 1059
X1059 JTL 1059 1060
X1060 JTL 1060 1061
X1061 JTL 1061 1062
X1062 JTL 1062 1063
X1063 JTL 1063 1064
X1064 JTL 1064 1065
X1065 JTL 1065 1066
X1066 JTL 1066 1067
X1067 JTL 1067 1068
X1068 JTL 1068 1069
X1069 JTL 1069 1070
X1070 JTL 1070 1071
X1071 JTL 1071 1072
X1072 JTL 1072 1073
X1073 JTL 1073 1074
X1074 JTL 1074 1075
X1075 JTL 1075 1076
X1076 JTL 1076 1077
X1077 JTL 1077 1078
X1078 JTL 1078 1079
X1079 JTL 1079 1080
X1080 JTL 1080 1081
X1081 JTL 1081 1082
X1082 JTL 1082 1083
X1083 JTL 1083 1084
X1084 JTL 1084 1085
X1085 JTL 1085 1086
X1086 JTL 1086 1087
X1087 JTL 1087 1088
X1088 JTL 1088 1089
X1089 JTL 1089 1090
X1090 JTL 1090 1091
X1091 JTL 1091 1092
X1092 JTL 1092 1093
X1093 JTL 1093 1094
X1094 JTL 1094 1095
X1095 JTL 1095 1096
X1096 JTL 1096 1097
X1097 JTL 1097 1098
X1098 JTL 1098 1099
X1099 JTL 1099 1100
X1100 JTL 1100 1101
X1101 JTL 1101 1102
X1102 JTL 1102 1103
X1103 JTL 1103 1104
X1104 JTL 1104 1105
X1105 JTL 1105 1106
X1106 JTL 1106 1107
X1107 JTL 1107 1108
X1108 JTL 1108 1109
X1109 JTL 1109 1110
X1110 JTL 1110 1111
X1111 JTL 1111 1112
X1112 JTL 1112 1113
X1113 JTL 1113 1114
X1114 JTL 1114 1115
X1115 JTL 1115 1116
X1116 JTL 1116 1117
X1117 JTL 1117 1118
X1118 JTL 1118 1119
X1119 JTL 1119 1120
X1120 JTL 1120 1121
X1121 JTL 1121 1122
X1122 JTL 1122 1123
X1123 JTL 1123 1124
X1124 JTL 1124 1125
X1125 JTL 1125 1126
X1126 JTL 1126 1127
X1127 JTL 1127 1128
X1128 JTL 1128 1129
X1129 JTL 1129 1130
X1130 JTL 1130 1131
X1131 JTL 1131 1132
X1132 JTL 1132 1133
X1133 JTL 1133 1134
X1134 JTL 1134 1135
X1135 JTL 1135 1136
X1136 JTL 1136 1137
X1137 JTL 1137 1138
X1138 JTL 1138 1139
X1139 JTL 1139 1140
X1140 JTL 1140 1141
X1141 JTL 1141 1142
X1142 JTL 1142 1143
X1143 JTL 1143 1144
X1144 JTL 1144 1145
X1145 JTL 1145 1146
X1146 JTL 1146 1147
X1147 JTL 1147 1148
X1148 JTL 1148 1149
X1149 JTL 1149 1150
X1150 JTL 1150 1151
X1151 JTL 1151 1152
X1152 JTL 1152 1153
X1153 JTL 1153 1154
X1154 JTL 1154 1155
X1155 JTL 1155 1156
X1156 JTL 1156 1157
X1157 JTL 1157 1158
X1158 JTL 1158 1159
X1159 JTL 1159 1160
X1160 JTL 1160 1161
X1161 JTL 1161 1162
X1162 JTL 1162 1163
X1163 JTL 1163 1164
X1164 JTL 1164 1165
X1165 JTL 1165 1166
X1166 JTL 1166 1167
X1167 JTL 1167 1168
X1168 JTL 1168 1169
X1169 JTL 1169 1170
X1170 JTL 1170 1171
X1171 JTL 1171 1172
X1172 JTL 1172 1173
X1173 JTL 1173 1174
X1174 JTL 1174 1175
X1175 JTL 1175 1176
X1176 JTL 1176 1177
X1177 JTL 1177 1178
X1178 JTL 1178 1179
X1179 JTL 1179 1180
X1180 JTL 1180 1181
X1181 JTL 1181 1182
X1182 JTL 1182 1183
X1183 JTL 1183 1184
X1184 JTL 1184 1185
X1185 JTL 1185 1186
X1186 JTL 1186 1187
X1187 JTL 1187 1188
X1188 JTL 1188 1189
X1189 JTL 1189 1190
X1190 JTL 1190 1191
X1191 JTL 1191 1192
X1192 JTL 1192 1193
X1193 JTL 1193 1194
X1194 JTL 1194 1195
X1195 JTL 1195 1196
X1196 JTL 1196 1197
X1197 JTL 1197 1198
X1198 JTL 1198 1199
X1199 JTL 1199 1200
X1200 JTL 1200 1201
X1201 JTL 1201 1202
X1202 JTL 1202 1203
X1203 JTL 1203 1204
X1204 JTL 1204 1205
X1205 JTL 1205 1206
X1206 JTL 1206 1207
X1207 JTL 1207 1208
X1208 JTL 1208 1209
X1209 JTL 1209 1210
X1210 JTL 1210 1211
X1211 JTL 1211 1212
X1212 JTL 1212 1213
X1213 JTL 1213 1214
X1214 JTL 1214 1215
X1215 JTL 1215 1216
X1216 JTL 1216 1217
X1217 JTL 1217 1218
X1218 JTL 1218 1219
X1219 JTL 1219 1220
X1220 JTL 1220 1221
X1221 JTL 1221 1222
X1222 JTL 1222 1223
X1223 JTL 1223 1224
X1224 JTL 1224 1225
X1225 JTL 1225 1226
X1226 JTL 1226 1227
X1227 JTL 1227 1228
X1228 JTL 1228 1229
X1229 JTL 1229 1230
X1230 JTL 1230 1231
X1231 JTL 1231 1232
X1232 JTL 1232 1233
X1233 JTL 1233 1234
X1234 JTL 1234 1235
X1235 JTL 1235 1236
X1236 JTL 1236 1237
X1237 JTL 1237 1238
X1238 JTL 1238 1239
X1239 JTL 1239 1240
X1240 JTL 1240 1241
X1241 JTL 1241 1242
X1242 JTL 1242 1243
X1243 JTL 1243 1244
X1244 JTL 1244 1245
X1245 JTL 1245 1246
X1246 JTL 1246 1247
X1247 JTL 1247 1248
X1248 JTL 1248 1249
X1249 JTL 1249 1250
X1250 JTL 1250 1251
X1251 JTL 1251 1252
X1252 JTL 1252 1253
X1253 JTL 1253 1254
X1254 JTL 1254 1255
X1255 JTL 1255 1256
X1256 JTL 1256 1257
X1257 JTL 1257 1258
X1258 JTL 1258 1259
X1259 JTL 1259 1260
X1260 JTL 1260 1261
X1261 JTL 1261 1262
X1262 JTL 1262 1263
X1263 JTL 1263 1264
X1264 JTL 1264 1265
X1265 JTL 1265 1266
X1266 JTL 1266 1267
X1267 JTL 1267 1268
X1268 JTL 1268 1269
X1269 JTL 1269 1270
X1270 JTL 1270 1271
X1271 JTL 1271 1272
X1272 JTL 1272 1273
X1273 JTL 1273 1274
X1274 JTL 1274 1275
X1275 JTL 1275 1276
X1276 JTL 1276 1277
X1277 JTL 1277 1278
X1278 JTL 1278 1279
X1279 JTL 1279 1280
X1280 JTL 1280 1281
X1281 JTL 1281 1282
X1282 JTL 1282 1283
X1283 JTL 1283 1284
X1284 JTL 1284 1285
X1285 JTL 1285 1286
X1286 JTL 1286 1287
X1287 JTL 1287 1288
X1288 JTL 1288 1289
X1289 JTL 1289 1290
X1290 JTL 1290 1291
X1291 JTL 1291 1292
X1292 JTL 1292 1293
X1293 JTL 1293 1294
X1294 JTL 1294 1295
X1295 JTL 1295 1296
X1296 JTL 1296 1297
X1297 JTL 1297 1298
X1298 JTL 1298 1299
X1299 JTL 1299 1300
X1300 JTL 1300 1301
X1301 JTL 1301 1302
X1302 JTL 1302 1303
X1303 JTL 1303 1304
X1304 JTL 1304 1305
X1305 JTL 1305 1306
X1306 JTL 1306 1307
X1307 JTL 1307 1308
X1308 JTL 1308 1309
X1309 JTL 1309 1310
X1310 JTL 1310 1311
X1311 JTL 1311 1312
X1312 JTL 1312 1313
X1313 JTL 1313 1314
X1314 JTL 1314 1315
X1315 JTL 1315 1316
X1316 JTL 1316 1317
X1317 JTL 1317 1318
X1318 JTL 1318 1319
X1319 JTL 1319 1320
X1320 JTL 1320 1321
X1321 JTL 1321 1322
X1322 JTL 1322 1323
X1323 JTL 1323 1324
X1324 JTL 1324 1325
X1325 JTL 1325 1326
X1326 JTL 1326 1327
X1327 JTL 1327 1328
X1328 JTL 1328 1329
X1329 JTL 1329 1330
X1330 JTL 1330 1331
X1331 JTL 1331 1332
X1332 JTL 1332 1333
X1333 JTL 1333 1334
X1334 JTL 1334 1335
X1335 JTL 1335 1336
X1336 JTL 1336 1337
X1337 JTL 1337 1338
X1338 JTL 1338 1339
X1339 JTL 1339 1340
X1340 JTL 1340 1341
X1341 JTL 1341 1342
X1342 JTL 1342 1343
X1343 JTL 1343 1344
X1344 JTL 1344 1345
X1345 JTL 1345 1346
X1346 JTL 1346 1347
X1347 JTL 1347 1348
X1348 JTL 1348 1349
X1349 JTL 1349 1350
X1350 JTL 1350 1351
X1351 JTL 1351 1352
X1352 JTL 1352 1353
X1353 JTL 1353 1354
X1354 JTL 1354 1355
X1355 JTL 1355 1356
X1356 JTL 1356 1357
X1357 JTL 1357 1358
X1358 JTL 1358 1359
X1359 JTL 1359 1360
X1360 JTL 1360 1361
X1361 JTL 1361 1362
X1362 JTL 1362 1363
X1363 JTL 1363 1364
X1364 JTL 1364 1365
X1365 JTL 1365 1366
X1366 JTL 1366 1367
X1367 JTL 1367 1368
X1368 JTL 1368 1369
X1369 JTL 1369 1370
X1370 JTL 1370 1371
X1371 JTL 1371 1372
X1372 JTL 1372 1373
X1373 JTL 1373 1374
X1374 JTL 1374 1375
X1375 JTL 1375 1376
X1376 JTL 1376 1377
X1377 JTL 1377 1378
X1378 JTL 1378 1379
X1379 JTL 1379 1380
X1380 JTL 1380 1381
X1381 JTL 1381 1382
X1382 JTL 1382 1383
X1383 JTL 1383 1384
X1384 JTL 1384 1385
X1385 JTL 1385 1386
X1386 JTL 1386 1387
X1387 JTL 1387 1388
X1388 JTL 1388 1389
X1389 JTL 1389 1390
X1390 JTL 1390 1391
X1391 JTL 1391 1392
X1392 JTL 1392 1393
X1393 JTL 1393 1394
X1394 JTL 1394 1395
X1395 JTL 1395 1396
X1396 JTL 1396 1397
X1397 JTL 1397 1398
X1398 JTL 1398 1399
X1399 JTL 1399 1400
X1400 JTL 1400 1401
X1401 JTL 1401 1402
X1402 JTL 1402 1403
X1403 JTL 1403 1404
X1404 JTL 1404 1405
X1405 JTL 1405 1406
X1406 JTL 1406 1407
X1407 JTL 1407 1408
X1408 JTL 1408 1409
X1409 JTL 1409 1410
X1410 JTL 1410 1411
X1411 JTL 1411 1412
X1412 JTL 1412 1413
X1413 JTL 1413 1414
X1414 JTL 1414 1415
X1415 JTL 1415 1416
X1416 JTL 1416 1417
X1417 JTL 1417 1418
X1418 JTL 1418 1419
X1419 JTL 1419 1420
X1420 JTL 1420 1421
X1421 JTL 1421 1422
X1422 JTL 1422 1423
X1423 JTL 1423 1424
X1424 JTL 1424 1425
X1425 JTL 1425 1426
X1426 JTL 1426 1427
X1427 JTL 1427 1428
X1428 JTL 1428 1429
X1429 JTL 1429 1430
X1430 JTL 1430 1431
X1431 JTL 1431 1432
X1432 JTL 1432 1433
X1433 JTL 1433 1434
X1434 JTL 1434 1435
X1435 JTL 1435 1436
X1436 JTL 1436 1437
X1437 JTL 1437 1438
X1438 JTL 1438 1439
X1439 JTL 1439 1440
X1440 JTL 1440 1441
X1441 JTL 1441 1442
X1442 JTL 1442 1443
X1443 JTL 1443 1444
X1444 JTL 1444 1445
X1445 JTL 1445 1446
X1446 JTL 1446 1447
X1447 JTL 1447 1448
X1448 JTL 1448 1449
X1449 JTL 1449 1450
X1450 JTL 1450 1451
X1451 JTL 1451 1452
X1452 JTL 1452 1453
X1453 JTL 1453 1454
X1454 JTL 1454 1455
X1455 JTL 1455 1456
X1456 JTL 1456 1457
X1457 JTL 1457 1458
X1458 JTL 1458 1459
X1459 JTL 1459 1460
X1460 JTL 1460 1461
X1461 JTL 1461 1462
X1462 JTL 1462 1463
X1463 JTL 1463 1464
X1464 JTL 1464 1465
X1465 JTL 1465 1466
X1466 JTL 1466 1467
X1467 JTL 1467 1468
X1468 JTL 1468 1469
X1469 JTL 1469 1470
X1470 JTL 1470 1471
X1471 JTL 1471 1472
X1472 JTL 1472 1473
X1473 JTL 1473 1474
X1474 JTL 1474 1475
X1475 JTL 1475 1476
X1476 JTL 1476 1477
X1477 JTL 1477 1478
X1478 JTL 1478 1479
X1479 JTL 1479 1480
X1480 JTL 1480 1481
X1481 JTL 1481 1482
X1482 JTL 1482 1483
X1483 JTL 1483 1484
X1484 JTL 1484 1485
X1485 JTL 1485 1486
X1486 JTL 1486 1487
X1487 JTL 1487 1488
X1488 JTL 1488 1489
X1489 JTL 1489 1490
X1490 JTL 1490 1491
X1491 JTL 1491 1492
X1492 JTL 1492 1493
X1493 JTL 1493 1494
X1494 JTL 1494 1495
X1495 JTL 1495 1496
X1496 JTL 1496 1497
X1497 JTL 1497 1498
X1498 JTL 1498 1499
X1499 JTL 1499 1500
X1500 JTL 1500 1501
X1501 JTL 1501 1502
X1502 JTL 1502 1503
X1503 JTL 1503 1504
X1504 JTL 1504 1505
X1505 JTL 1505 1506
X1506 JTL 1506 1507
X1507 JTL 1507 1508
X1508 JTL 1508 1509
X1509 JTL 1509 1510
X1510 JTL 1510 1511
X1511 JTL 1511 1512
X1512 JTL 1512 1513
X1513 JTL 1513 1514
X1514 JTL 1514 1515
X1515 JTL 1515 1516
X1516 JTL 1516 1517
X1517 JTL 1517 1518
X1518 JTL 1518 1519
X1519 JTL 1519 1520
X1520 JTL 1520 1521
X1521 JTL 1521 1522
X1522 JTL 1522 1523
X1523 JTL 1523 1524
X1524 JTL 1524 1525
X1525 JTL 1525 1526
X1526 JTL 1526 1527
X1527 JTL 1527 1528
X1528 JTL 1528 1529
X1529 JTL 1529 1530
X1530 JTL 1530 1531
X1531 JTL 1531 1532
X1532 JTL 1532 1533
X1533 JTL 1533 1534
X1534 JTL 1534 1535
X1535 JTL 1535 1536
X1536 JTL 1536 1537
X1537 JTL 1537 1538
X1538 JTL 1538 1539
X1539 JTL 1539 1540
X1540 JTL 1540 1541
X1541 JTL 1541 1542
X1542 JTL 1542 1543
X1543 JTL 1543 1544
X1544 JTL 1544 1545
X1545 JTL 1545 1546
X1546 JTL 1546 1547
X1547 JTL 1547 1548
X1548 JTL 1548 1549
X1549 JTL 1549 1550
X1550 JTL 1550 1551
X1551 JTL 1551 1552
X1552 JTL 1552 1553
X1553 JTL 1553 1554
X1554 JTL 1554 1555
X1555 JTL 1555 1556
X1556 JTL 1556 1557
X1557 JTL 1557 1558
X1558 JTL 1558 1559
X1559 JTL 1559 1560
X1560 JTL 1560 1561
X1561 JTL 1561 1562
X1562 JTL 1562 1563
X1563 JTL 1563 1564
X1564 JTL 1564 1565
X1565 JTL 1565 1566
X1566 JTL 1566 1567
X1567 JTL 1567 1568
X1568 JTL 1568 1569
X1569 JTL 1569 1570
X1570 JTL 1570 1571
X1571 JTL 1571 1572
X1572 JTL 1572 1573
X1573 JTL 1573 1574
X1574 JTL 1574 1575
X1575 JTL 1575 1576
X1576 JTL 1576 1577
X1577 JTL 1577 1578
X1578 JTL 1578 1579
X1579 JTL 1579 1580
X1580 JTL 1580 1581
X1581 JTL 1581 1582
X1582 JTL 1582 1583
X1583 JTL 1583 1584
X1584 JTL 1584 1585
X1585 JTL 1585 1586
X1586 JTL 1586 1587
X1587 JTL 1587 1588
X1588 JTL 1588 1589
X1589 JTL 1589 1590
X1590 JTL 1590 1591
X1591 JTL 1591 1592
X1592 JTL 1592 1593
X1593 JTL 1593 1594
X1594 JTL 1594 1595
X1595 JTL 1595 1596
X1596 JTL 1596 1597
X1597 JTL 1597 1598
X1598 JTL 1598 1599
X1599 JTL 1599 1600
X1600 JTL 1600 1601
X1601 JTL 1601 1602
X1602 JTL 1602 1603
X1603 JTL 1603 1604
X1604 JTL 1604 1605
X1605 JTL 1605 1606
X1606 JTL 1606 1607
X1607 JTL 1607 1608
X1608 JTL 1608 1609
X1609 JTL 1609 1610
X1610 JTL 1610 1611
X1611 JTL 1611 1612
X1612 JTL 1612 1613
X1613 JTL 1613 1614
X1614 JTL 1614 1615
X1615 JTL 1615 1616
X1616 JTL 1616 1617
X1617 JTL 1617 1618
X1618 JTL 1618 1619
X1619 JTL 1619 1620
X1620 JTL 1620 1621
X1621 JTL 1621 1622
X1622 JTL 1622 1623
X1623 JTL 1623 1624
X1624 JTL 1624 1625
X1625 JTL 1625 1626
X1626 JTL 1626 1627
X1627 JTL 1627 1628
X1628 JTL 1628 1629
X1629 JTL 1629 1630
X1630 JTL 1630 1631
X1631 JTL 1631 1632
X1632 JTL 1632 1633
X1633 JTL 1633 1634
X1634 JTL 1634 1635
X1635 JTL 1635 1636
X1636 JTL 1636 1637
X1637 JTL 1637 1638
X1638 JTL 1638 1639
X1639 JTL 1639 1640
X1640 JTL 1640 1641
X1641 JTL 1641 1642
X1642 JTL 1642 1643